# generated using pymatgen
data_V2P3O11
_symmetry_space_group_name_H-M   'P 1'
_cell_length_a   7.16250355
_cell_length_b   7.16250355
_cell_length_c   8.81449480
_cell_angle_alpha   70.72690086
_cell_angle_beta   70.72690086
_cell_angle_gamma   72.11962844
_symmetry_Int_Tables_number   1
_chemical_formula_structural   V2P3O11
_chemical_formula_sum   'V4 P6 O22'
_cell_volume   392.84870282
_cell_formula_units_Z   2
loop_
 _symmetry_equiv_pos_site_id
 _symmetry_equiv_pos_as_xyz
  1  'x, y, z'
loop_
 _atom_site_type_symbol
 _atom_site_label
 _atom_site_symmetry_multiplicity
 _atom_site_fract_x
 _atom_site_fract_y
 _atom_site_fract_z
 _atom_site_occupancy
  V  V0  1  0.36356658  0.89029089  0.95891252  1
  V  V1  1  0.10970911  0.63643342  0.54108748  1
  V  V2  1  0.89029089  0.36356658  0.45891252  1
  V  V3  1  0.63643342  0.10970911  0.04108748  1
  P  P4  1  0.04012226  0.95987774  0.75000000  1
  P  P5  1  0.67253478  0.54416584  0.79082687  1
  P  P6  1  0.54416584  0.67253478  0.29082687  1
  P  P7  1  0.45583416  0.32746522  0.70917313  1
  P  P8  1  0.32746522  0.45583416  0.20917313  1
  P  P9  1  0.95987774  0.04012226  0.25000000  1
  O  O10  1  0.85906549  0.98833319  0.89884240  1
  O  O11  1  0.23414258  0.95198683  0.78860639  1
  O  O12  1  0.98833319  0.85906549  0.39884240  1
  O  O13  1  0.61189818  0.74701550  0.82970663  1
  O  O14  1  0.04801317  0.76585742  0.71139361  1
  O  O15  1  0.53520405  0.84663632  0.13120313  1
  O  O16  1  0.84663632  0.53520405  0.63120313  1
  O  O17  1  0.36853871  0.72073611  0.43423620  1
  O  O18  1  0.72073611  0.36853871  0.93423620  1
  O  O19  1  0.48279486  0.51720514  0.75000000  1
  O  O20  1  0.74701550  0.61189818  0.32970663  1
  O  O21  1  0.25298450  0.38810182  0.67029337  1
  O  O22  1  0.51720514  0.48279486  0.25000000  1
  O  O23  1  0.27926389  0.63146129  0.06576380  1
  O  O24  1  0.63146129  0.27926389  0.56576380  1
  O  O25  1  0.15336368  0.46479595  0.36879687  1
  O  O26  1  0.46479595  0.15336368  0.86879687  1
  O  O27  1  0.95198683  0.23414258  0.28860639  1
  O  O28  1  0.38810182  0.25298450  0.17029337  1
  O  O29  1  0.01166681  0.14093451  0.60115760  1
  O  O30  1  0.76585742  0.04801317  0.21139361  1
  O  O31  1  0.14093451  0.01166681  0.10115760  1
