# generated using pymatgen
data_Cu2(SO4)3
_symmetry_space_group_name_H-M   'P 1'
_cell_length_a   8.68503398
_cell_length_b   8.68506463
_cell_length_c   8.68504795
_cell_angle_alpha   54.91269418
_cell_angle_beta   54.91274962
_cell_angle_gamma   54.91280678
_symmetry_Int_Tables_number   1
_chemical_formula_structural   Cu2(SO4)3
_chemical_formula_sum   'Cu4 S6 O24'
_cell_volume   408.38510435
_cell_formula_units_Z   2
loop_
 _symmetry_equiv_pos_site_id
 _symmetry_equiv_pos_as_xyz
  1  'x, y, z'
loop_
 _atom_site_type_symbol
 _atom_site_label
 _atom_site_symmetry_multiplicity
 _atom_site_fract_x
 _atom_site_fract_y
 _atom_site_fract_z
 _atom_site_occupancy
  Cu  Cu0  1  0.14455431  0.14455340  0.14455339  1
  Cu  Cu1  1  0.34519887  0.34520063  0.34520162  1
  Cu  Cu2  1  0.65480113  0.65479937  0.65479838  1
  Cu  Cu3  1  0.85544569  0.85544660  0.85544661  1
  S  S4  1  0.74911821  0.04173732  0.45761181  1
  S  S5  1  0.95826255  0.54239087  0.25088097  1
  S  S6  1  0.54239046  0.25087988  0.95826310  1
  S  S7  1  0.45760954  0.74912012  0.04173690  1
  S  S8  1  0.04173745  0.45760913  0.74911903  1
  S  S9  1  0.25088179  0.95826268  0.54238819  1
  O  O10  1  0.52961272  0.20168488  0.15857792  1
  O  O11  1  0.20168792  0.15857382  0.52961055  1
  O  O12  1  0.79718267  0.02273591  0.60573201  1
  O  O13  1  0.87396550  0.13853334  0.25208051  1
  O  O14  1  0.15857869  0.52961086  0.20168403  1
  O  O15  1  0.74792221  0.12603348  0.86146743  1
  O  O16  1  0.97726275  0.39426989  0.20281869  1
  O  O17  1  0.53507470  0.16886803  0.49277281  1
  O  O18  1  0.83113310  0.50723143  0.46492496  1
  O  O19  1  0.39426943  0.20281559  0.97726447  1
  O  O20  1  0.86146786  0.74792116  0.12603320  1
  O  O21  1  0.50723058  0.46492217  0.83113291  1
  O  O22  1  0.49276942  0.53507783  0.16886709  1
  O  O23  1  0.13853214  0.25207884  0.87396680  1
  O  O24  1  0.60573057  0.79718441  0.02273553  1
  O  O25  1  0.16886690  0.49276857  0.53507504  1
  O  O26  1  0.46492530  0.83113197  0.50722719  1
  O  O27  1  0.02273725  0.60573011  0.79718131  1
  O  O28  1  0.25207779  0.87396652  0.13853257  1
  O  O29  1  0.84142131  0.47038914  0.79831597  1
  O  O30  1  0.12603450  0.86146666  0.74791949  1
  O  O31  1  0.20281733  0.97726409  0.39426799  1
  O  O32  1  0.79831208  0.84142618  0.47038945  1
  O  O33  1  0.47038728  0.79831512  0.84142208  1
