# generated using pymatgen
data_Mn2Cr3Co3O16
_symmetry_space_group_name_H-M   'P 1'
_cell_length_a   5.74063624
_cell_length_b   5.75752140
_cell_length_c   8.84158696
_cell_angle_alpha   90.04629405
_cell_angle_beta   89.80301768
_cell_angle_gamma   120.23948278
_symmetry_Int_Tables_number   1
_chemical_formula_structural   Mn2Cr3Co3O16
_chemical_formula_sum   'Mn2 Cr3 Co3 O16'
_cell_volume   252.46462228
_cell_formula_units_Z   1
loop_
 _symmetry_equiv_pos_site_id
 _symmetry_equiv_pos_as_xyz
  1  'x, y, z'
loop_
 _atom_site_type_symbol
 _atom_site_label
 _atom_site_symmetry_multiplicity
 _atom_site_fract_x
 _atom_site_fract_y
 _atom_site_fract_z
 _atom_site_occupancy
  Mn  Mn0  1  0.33549900  0.66825300  0.48467600  1
  Mn  Mn1  1  0.66941300  0.33483900  0.98021900  1
  Cr  Cr2  1  0.15852400  0.83070000  0.20489700  1
  Cr  Cr3  1  0.15927800  0.32773400  0.20387300  1
  Cr  Cr4  1  0.32528200  0.16229800  0.70208000  1
  Co  Co5  1  0.65592100  0.82849300  0.21465000  1
  Co  Co6  1  0.82894000  0.66046800  0.71267000  1
  Co  Co7  1  0.82654300  0.16239900  0.71020500  1
  O  O8  1  0.16972500  0.83209700  0.60469900  1
  O  O9  1  0.04844900  0.52316100  0.33974000  1
  O  O10  1  0.34594400  0.67368000  0.09703000  1
  O  O11  1  0.98416200  0.99220400  0.31786200  1
  O  O12  1  0.98567600  0.98853400  0.81712900  1
  O  O13  1  0.16722000  0.33521000  0.60646800  1
  O  O14  1  0.48230800  0.95917100  0.34173800  1
  O  O15  1  0.48205700  0.52389300  0.34142400  1
  O  O16  1  0.34652200  0.17317500  0.10824500  1
  O  O17  1  0.67552200  0.84141200  0.60539100  1
  O  O18  1  0.52367700  0.48245100  0.84020500  1
  O  O19  1  0.52220800  0.04474900  0.83716500  1
  O  O20  1  0.67830100  0.34208300  0.60094400  1
  O  O21  1  0.83415800  0.66517800  0.10408300  1
  O  O22  1  0.96045200  0.47756600  0.83687000  1
  O  O23  1  0.83421800  0.17045700  0.10345500  1
