# generated using pymatgen
data_NiSn(PO4)2
_symmetry_space_group_name_H-M   'P 1'
_cell_length_a   5.94676201
_cell_length_b   9.87568535
_cell_length_c   11.14538556
_cell_angle_alpha   115.96304829
_cell_angle_beta   90.00117505
_cell_angle_gamma   90.00586817
_symmetry_Int_Tables_number   1
_chemical_formula_structural   NiSn(PO4)2
_chemical_formula_sum   'Ni4 Sn4 P8 O32'
_cell_volume   588.49066793
_cell_formula_units_Z   4
loop_
 _symmetry_equiv_pos_site_id
 _symmetry_equiv_pos_as_xyz
  1  'x, y, z'
loop_
 _atom_site_type_symbol
 _atom_site_label
 _atom_site_symmetry_multiplicity
 _atom_site_fract_x
 _atom_site_fract_y
 _atom_site_fract_z
 _atom_site_occupancy
  Ni  Ni0  1  0.75041300  0.83132400  0.22446900  1
  Ni  Ni1  1  0.25002200  0.66893100  0.77561200  1
  Ni  Ni2  1  0.74977800  0.33093800  0.22425600  1
  Ni  Ni3  1  0.24958600  0.16871100  0.77541200  1
  Sn  Sn4  1  0.25004100  0.61281800  0.27538800  1
  Sn  Sn5  1  0.24999200  0.11281300  0.27537500  1
  Sn  Sn6  1  0.74997600  0.38721800  0.72466300  1
  Sn  Sn7  1  0.74998000  0.88718800  0.72463700  1
  P  P8  1  0.24991600  0.23888300  0.08978700  1
  P  P9  1  0.25016200  0.73889500  0.08984600  1
  P  P10  1  0.75002300  0.76112600  0.91018400  1
  P  P11  1  0.74990500  0.26109400  0.91015600  1
  P  P12  1  0.75004300  0.65301000  0.40570700  1
  P  P13  1  0.74997400  0.15304000  0.40568800  1
  P  P14  1  0.25000000  0.34699600  0.59431800  1
  P  P15  1  0.25002100  0.84696500  0.59430000  1
  O  O16  1  0.74998900  0.35894600  0.05805900  1
  O  O17  1  0.75001900  0.85898700  0.05809100  1
  O  O18  1  0.25001800  0.64105500  0.94192700  1
  O  O19  1  0.24999900  0.14106000  0.94191000  1
  O  O20  1  0.25001000  0.40666000  0.11859400  1
  O  O21  1  0.24999800  0.90667900  0.11860000  1
  O  O22  1  0.75001000  0.59335500  0.88143000  1
  O  O23  1  0.75000700  0.09333300  0.88140200  1
  O  O24  1  0.75001600  0.29485300  0.38660500  1
  O  O25  1  0.75002200  0.79485300  0.38664500  1
  O  O26  1  0.24999400  0.70514300  0.61337100  1
  O  O27  1  0.24998500  0.20513500  0.61334300  1
  O  O28  1  0.25009900  0.31140700  0.44430100  1
  O  O29  1  0.25000100  0.81144800  0.44430500  1
  O  O30  1  0.75000500  0.68844400  0.55579800  1
  O  O31  1  0.75001100  0.18859800  0.55569900  1
  O  O32  1  0.04872500  0.20228800  0.16585300  1
  O  O33  1  0.04897800  0.70232700  0.16596000  1
  O  O34  1  0.45106000  0.20229900  0.16595600  1
  O  O35  1  0.45132900  0.70234900  0.16589600  1
  O  O36  1  0.54878600  0.79771200  0.83412000  1
  O  O37  1  0.54874000  0.29765700  0.83408700  1
  O  O38  1  0.95122000  0.79771900  0.83411700  1
  O  O39  1  0.95111900  0.29771400  0.83408400  1
  O  O40  1  0.95449500  0.54347200  0.33552900  1
  O  O41  1  0.95447600  0.04347100  0.33552900  1
  O  O42  1  0.54550500  0.54346200  0.33552400  1
  O  O43  1  0.54551800  0.04347000  0.33552400  1
  O  O44  1  0.04551800  0.45653000  0.66447800  1
  O  O45  1  0.04552600  0.95653900  0.66448700  1
  O  O46  1  0.45450200  0.45654300  0.66448700  1
  O  O47  1  0.45448700  0.95654100  0.66449000  1
